.model 1N6263 D(Is=1.82u Rs=2.8 N=1.7 Cjo=2.65p M=0.333 tt=1.44n BV=60 Ibv=200n)
.MODEL BB535/SIE D (IS=1.75E-15 N=1.043 RS=60E-3 XTI=3 EG=1.11 CJO=25.31E-12 M=1.064 VJ=3.022 FC=.5 BV=32 IBV=100E-9 TT=120E-9 )
