Version 4.1
SHEET 1 5945688 13421568
WIRE 1600 -656 1520 -656
WIRE 1936 -656 1600 -656
WIRE 2368 -624 2304 -624
WIRE 1520 -592 1520 -656
WIRE 1632 -592 1520 -592
WIRE 1808 -592 1712 -592
WIRE 1872 -592 1808 -592
WIRE 1936 -592 1872 -592
WIRE 2368 -560 2304 -560
WIRE 1520 -544 1520 -592
WIRE 1936 -528 1888 -528
WIRE 1808 -512 1808 -592
WIRE 1920 -512 1808 -512
WIRE 1808 -448 1728 -448
WIRE 1520 -416 1520 -464
WIRE 1808 -416 1808 -448
WIRE 1808 -416 1520 -416
WIRE 1888 -416 1888 -528
WIRE 1888 -416 1808 -416
WIRE 1808 -368 1808 -416
WIRE 1920 -272 1920 -512
WIRE 2016 -272 1920 -272
WIRE 1728 -224 1728 -448
WIRE 2016 -160 2016 -272
WIRE 2016 -160 1728 -160
FLAG 1808 -368 0
FLAG 1600 -656 bias
FLAG 2368 -560 capacitance
FLAG 1872 -592 v+
SYMBOL voltage 1520 -560 M0
SYMATTR InstName V1
SYMATTR Value pwl(0 0 1m 11)
SYMBOL RES 1616 -608 M90
WINDOW 0 0 56 VBottom 2
WINDOW 3 32 56 VTop 2
SYMATTR InstName R9
SYMATTR Value 1K
SYMBOL SpecialFunctions\\capmeter 2016 -624 R0
SYMATTR InstName U2
SYMBOL varactor 1712 -224 R0
SYMATTR InstName D1
SYMATTR Value {Varaktor}
TEXT 1504 -320 Left 2 !.tran 1100u
TEXT 1504 -288 Left 2 !.options maxstep=.005u
TEXT 1984 -424 Left 2 !.include capometer.sub
TEXT 2000 -128 Left 2 !* Varactor library\n.MODEL BB112 D ( IS=1e-14 RS=0.0011 CJO=2.324n VJ=0.75 TT=5n M=0.9 BV=100 XTI=3 FC=0.5 IBV=0.0001   )\n.MODEL BB212 D ( IS=1e-14 RS=0.0011 CJO=7.202e-10 VJ=.10 TT=5n M=0.9 BV=100 XTI=3 FC=0.5 IBV=0.0001   )\n.MODEL BB119 D IS=1.122e-17 RS=0.0011 CJO=4.163e-11 VJ=0.75 TT=5n M=0.3333 BV=100 N=1 EG=1.11 XTI=3 FC=0.5 IBV=0.0001 TNOM=27  \n.MODEL BB130 D IS=1e-14 RS=0.0011 CJO=5.563e-11 VJ=0.75 TT=5n M=0.3333 BV=100 N=1 EG=1.11 XTI=3 FC=0.5 IBV=0.0001 TNOM=27  \n.MODEL BB204B D IS=1e-14 RS=0.0011 CJO=7.783e-11 VJ=0.75 TT=5n M=0.4705 BV=100 N=1 EG=1.11 XTI=3 FC=0.5 IBV=0.0001 TNOM=27  \n.MODEL BB204G D IS=1e-14 RS=0.0011 CJO=8.431e-11 VJ=0.75 TT=5n M=0.4711 BV=100 N=1 EG=1.11 XTI=3 FC=0.5 IBV=0.0001 TNOM=27  \n.MODEL BB215 D IS=1e-14 RS=0.0011 CJO=3.249e-11 VJ=0.75 TT=5n M=0.7646 BV=100 N=1 EG=1.11 XTI=3 FC=0.5 IBV=0.0001 TNOM=27  \n.MODEL BB219 D IS=1e-14 RS=0.0011 CJO=6.351e-11 VJ=0.75 TT=5n M=0.8465 BV=100 N=1 EG=1.11 XTI=3 FC=0.5 IBV=0.0001 TNOM=27  \n.MODEL BB240 D IS=1e-14 RS=0.0011 CJO=2.479e-08 VJ=0.75 TT=5n M=0.77 BV=100 N=1 EG=1.11 XTI=3 FC=0.5 IBV=0.0001 TNOM=27  \n.MODEL BB241 D IS=1e-14 RS=0.0011 CJO=1.049e-10 VJ=0.75 TT=5n M=0.9987 BV=100 N=1 EG=1.11 XTI=3 FC=0.5 IBV=0.0001 TNOM=27  \n.MODEL BB249 D IS=1e-14 RS=0.0011 CJO=8.387e-11 VJ=0.75 TT=5n M=0.8022 BV=100 N=1 EG=1.11 XTI=3 FC=0.5 IBV=0.0001 TNOM=27  \n.MODEL BB405B D IS=1e-14 RS=0.0011 CJO=2.673e-11 VJ=1.922 TT=5n M=0.9446 BV=100 N=1 EG=1.11 XTI=3 FC=0.5 IBV=0.0001 TNOM=27  \n.MODEL BB417 D IS=1e-14 RS=0.0011 CJO=5.329e-11 VJ=0.75 TT=5n M=0.9343 BV=100 N=1 EG=1.11 XTI=3 FC=0.5 IBV=0.0001 TNOM=27  \n.MODEL BB515 D IS=1e-14 RS=0.0011 CJO=3.412e-11 VJ=0.75 TT=5n M=0.7712 BV=30.36 N=1 EG=1.11 XTI=3 FC=0.5 IBV=10 TNOM=27  \n.MODEL BB619 D IS=1e-14 RS=0.0011 CJO=8.244e-11 VJ=0.75 TT=5n M=0.9376 BV=30.36 N=1 EG=1.11 XTI=3 FC=0.5 IBV=10 TNOM=27  \n.MODEL BB620 D IS=1e-14 RS=0.0011 CJO=1.756e-10 VJ=0.75 TT=5n M=0.9 BV=30.36 N=1 EG=1.11 XTI=3 FC=0.5 IBV=10 TNOM=27  \n.MODEL BB804 D IS=1e-14 RS=0.0011 CJO=6.9e-11 VJ=0.75 TT=5n M=0.3333 BV=30.36 N=1 EG=1.11 XTI=3 FC=0.5 IBV=10 TNOM=27  \n.MODEL BB809 D IS=1e-14 RS=0.0011 CJO=8.387e-11 VJ=0.75 TT=5n M=0.8022 BV=30.36 N=1 EG=1.11 XTI=3 FC=0.5 IBV=10 TNOM=27  \n.MODEL BB811 D IS=1e-14 RS=0.0011 CJO=1.687e-11 VJ=0.75 TT=5n M=0.7681 BV=30.36 N=1 EG=1.11 XTI=3 FC=0.5 IBV=10 TNOM=27  \n.MODEL BB909A D IS=1e-14 RS=0.0011 CJO=3.725e-11 VJ=10 TT=5n M=0.9 BV=100 N=1 EG=1.11 XTI=3 FC=0.5 IBV=0.0001 TNOM=27  \n.MODEL BB909B D IS=1e-14 RS=0.0011 CJO=4.028e-11 VJ=10 TT=5n M=0.9 BV=100 N=1 EG=1.11 XTI=3 FC=0.5 IBV=0.0001 TNOM=27  \n.MODEL BB910 D IS=1e-14 RS=0.0011 CJO=5.92e-11 VJ=0.75 TT=5n M=0.8679 BV=100 N=1 EG=1.11 XTI=3 FC=0.5 IBV=0.0001 TNOM=27  \n.MODEL BB911 D IS=1e-14 RS=0.0011 CJO=1.049e-10 VJ=0.75 TT=5n M=0.9987 BV=100 N=1 EG=1.11 XTI=3 FC=0.5 IBV=0.0001 TNOM=27  \n.MODEL BB535/SIE D (IS=1.75E-15 N=1.043 RS=60E-3 XTI=3 EG=1.11 CJO=25.31E-12 M=1.064 VJ=3.022 FC=.5 BV=32 IBV=100E-9 TT=120E-9 )\n.MODEL BB545/SIE D (IS=110.11E-15 RS=0.24545 N=1.2034 XTI=3 EG=1.11 CJo=38.264P M=0.87698 Vj=0.91294 FC=0 BV=30 IBV=5E-6 TT=80N )\n.MODEL BB639/SIE D (IS=4E-15 N=1.035 RS=.12 XTI=3 EG=1.11 CJO=55.88E-12 M=1.286 VJ=2.922 FC=.5 BV=32 IBV=100E-9 TT=160E-9 )\n.MODEL BB804/SIE D (IS=48F N=1.13 RS=.18 XTI=3 EG=1.11 CJO=80.6P M=.47 VJ=.8 FC=.5 BV=20 IBV=.1U TT=137N )\n.MODEL BB814/SIE D (IS=7f N=1.012 RS=.18 XTI=3 EG=1.11 CJO=83.9p M=.775 VJ=1.6 FC=.5 BV=20 IBV=100n TT=137n )\n.MODEL BB833/SIE D (IS=42.156E-15 N=1.1718 RS=.10785 XTI=3 EG=1.11 CJO=29.033E-12 M=0.90022 VJ=.39089 FC=.5 BV=32 IBV=5E-6 TT=120E-9 )\n.MODEL BB914/SIE D (IS=10.00E-15 N=1.020 RS=.28 IKF=0 XTI=3 EG=1.11 CJO=75.54E-12 M=1.161 VJ=3.445 FC=.5 ISR=100E-12 NR=2 BV=20 IBV=100E-9 TT=137.0E-9 )
TEXT 1536 -88 Left 2 !.model 1 AKO: BB112\n.model 2 AKO: BB212\n.model 3 AKO: BB119\n.model 4 AKO: BB130\n.model 5 AKO: BB204B\n.model 6 AKO: BB204G\n.model 7 AKO: BB215\n.model 8 AKO: BB219\n.model 9 AKO: BB240\n.model 10 AKO: BB241\n.model 11 AKO: BB249\n.model 12 AKO: BB405B\n.model 13 AKO: BB417\n.model 14 AKO: BB515\n.model 15 AKO: BB619\n.model 16 AKO: BB620\n.model 17 AKO: BB804\n.model 18 AKO: BB809\n.model 19 AKO: BB811\n.model 20 AKO: BB909A\n.model 21 AKO: BB909B\n.model 22 AKO: BB910\n.model 23 AKO: BB911\n.model 24 AKO: BB535/SIE\n.model 25 AKO: BB545/SIE\n.model 26 AKO: BB639/SIE\n.model 27 AKO: BB804/SIE\n.model 28 AKO: BB814/SIE\n.model 29 AKO: BB833/SIE\n.model 30 AKO: BB914/SIE\n \n.step param Varaktor list 16 23 30 \n.meas TRAN C8 FIND V(capacitance) WHEN V(v+)=8\n.meas TRAN C11 FIND V(capacitance) WHEN V(v+)=11\n.meas TRAN DeltaC PARAM (C8-C11)
