Version 4
SHEET 1 5945688 13421568
WIRE 1600 -656 1520 -656
WIRE 1936 -656 1600 -656
WIRE 2368 -624 2304 -624
WIRE 1520 -592 1520 -656
WIRE 1632 -592 1520 -592
WIRE 1808 -592 1712 -592
WIRE 1936 -592 1808 -592
WIRE 2368 -560 2304 -560
WIRE 1520 -544 1520 -592
WIRE 1936 -528 1888 -528
WIRE 1808 -512 1808 -592
WIRE 1920 -512 1808 -512
WIRE 1808 -448 1728 -448
WIRE 1520 -416 1520 -464
WIRE 1808 -416 1808 -448
WIRE 1808 -416 1520 -416
WIRE 1888 -416 1888 -528
WIRE 1888 -416 1808 -416
WIRE 1808 -368 1808 -416
WIRE 1920 -272 1920 -512
WIRE 2016 -272 1920 -272
WIRE 1728 -224 1728 -448
WIRE 1776 -224 1728 -224
WIRE 1824 -224 1776 -224
WIRE 1872 -224 1824 -224
WIRE 1920 -224 1872 -224
WIRE 1776 -160 1728 -160
WIRE 1824 -160 1776 -160
WIRE 1872 -160 1824 -160
WIRE 1920 -160 1872 -160
WIRE 2016 -160 2016 -272
WIRE 2016 -160 1920 -160
FLAG 1808 -368 0
FLAG 1600 -656 bias
FLAG 2368 -560 capacitance
SYMBOL voltage 1520 -560 M0
SYMATTR InstName V1
SYMATTR Value pwl(0 0 1m 10)
SYMBOL RES 1616 -608 M90
WINDOW 0 0 56 VBottom 2
WINDOW 3 32 56 VTop 2
SYMATTR InstName R9
SYMATTR Value 1K
SYMBOL SpecialFunctions\\capmeter 2016 -624 R0
SYMATTR InstName U2
SYMBOL varactor 1904 -224 R0
SYMATTR InstName D1
SYMATTR Value BB911
SYMBOL varactor 1856 -224 R0
SYMATTR InstName D2
SYMATTR Value BB911
SYMBOL varactor 1808 -224 R0
SYMATTR InstName D3
SYMATTR Value BB911
SYMBOL varactor 1760 -224 R0
SYMATTR InstName D4
SYMATTR Value BB911
SYMBOL varactor 1712 -224 R0
SYMATTR InstName D5
SYMATTR Value BB911
TEXT 1504 -320 Left 2 !.tran 1100u
TEXT 1504 -288 Left 2 !.options maxstep=.005u
TEXT 1984 -424 Left 2 !.include capometer.sub
TEXT 2080 -256 Left 2 !.MODEL BB911 D (IS=1e-14 RS=0.0011 CJO=1.049e-10 VJ=0.75 TT=5n M=0.9987 BV=100 N=1 EG=1.11 XTI=3 FC=0.5 IBV=0.0001 TNOM=27)
