Version 4.1
SHEET 1 5945688 13421568
WIRE 1600 -656 1520 -656
WIRE 1936 -656 1600 -656
WIRE 2368 -624 2304 -624
WIRE 1520 -592 1520 -656
WIRE 1632 -592 1520 -592
WIRE 1808 -592 1712 -592
WIRE 1936 -592 1808 -592
WIRE 2368 -560 2304 -560
WIRE 1520 -544 1520 -592
WIRE 1936 -528 1888 -528
WIRE 1808 -512 1808 -592
WIRE 1520 -416 1520 -464
WIRE 1808 -416 1808 -448
WIRE 1808 -416 1520 -416
WIRE 1888 -416 1888 -528
WIRE 1888 -416 1808 -416
WIRE 1808 -368 1808 -416
FLAG 1808 -368 0
FLAG 1600 -656 bias
FLAG 2368 -560 capacitance
SYMBOL varactor 1824 -448 R180
WINDOW 0 24 64 Left 2
WINDOW 3 24 0 Left 2
SYMATTR InstName D1
SYMATTR Value KV1471
SYMATTR Type diode
SYMBOL voltage 1520 -560 M0
SYMATTR InstName V1
SYMATTR Value pwl(0 0 1m 10)
SYMBOL RES 1616 -608 M90
WINDOW 0 0 56 VBottom 2
WINDOW 3 32 56 VTop 2
SYMATTR InstName R9
SYMATTR Value 1K
SYMBOL SpecialFunctions\\capmeter 2016 -624 R0
SYMATTR InstName U2
TEXT 1504 -320 Left 2 !.tran 600u
TEXT 1504 -288 Left 2 !.options maxstep=.005u
TEXT 1984 -424 Left 2 !.include capometer.sub
