Version 4
SHEET 1 2340 680
WIRE 16 -2976 16 -2992
WIRE 16 -2880 16 -2896
WIRE 16 -2880 -48 -2880
WIRE 64 -2880 16 -2880
WIRE -240 -2832 -304 -2832
WIRE -176 -2832 -240 -2832
WIRE -112 -2832 -176 -2832
WIRE -48 -2832 -48 -2880
WIRE -48 -2832 -112 -2832
WIRE 64 -2832 64 -2880
WIRE 128 -2832 64 -2832
WIRE 192 -2832 128 -2832
WIRE 256 -2832 192 -2832
WIRE 320 -2832 256 -2832
WIRE -240 -2768 -304 -2768
WIRE -176 -2768 -240 -2768
WIRE -112 -2768 -176 -2768
WIRE -48 -2768 -112 -2768
WIRE 128 -2768 64 -2768
WIRE 192 -2768 128 -2768
WIRE 256 -2768 192 -2768
WIRE 320 -2768 256 -2768
WIRE 64 -2704 64 -2768
WIRE 192 -2704 64 -2704
WIRE 624 -2704 192 -2704
WIRE 192 -2688 192 -2704
WIRE 416 -2656 304 -2656
WIRE 624 -2656 624 -2704
WIRE 624 -2656 496 -2656
WIRE 480 -2608 448 -2608
WIRE -48 -2592 -48 -2768
WIRE 192 -2592 192 -2624
WIRE 192 -2592 -48 -2592
WIRE 448 -2576 448 -2608
WIRE 624 -2576 624 -2656
WIRE 304 -2560 304 -2656
WIRE 336 -2560 304 -2560
WIRE 416 -2560 336 -2560
WIRE 624 -2544 624 -2576
WIRE 624 -2544 480 -2544
WIRE -672 -2528 -672 -2576
WIRE -560 -2528 -560 -2576
WIRE -432 -2528 -432 -2576
WIRE 192 -2528 192 -2592
WIRE 416 -2528 368 -2528
WIRE 624 -2512 624 -2544
WIRE 448 -2464 448 -2512
WIRE 464 -2464 448 -2464
WIRE 304 -2416 304 -2560
WIRE 336 -2416 304 -2416
WIRE 464 -2416 416 -2416
WIRE 192 -2400 192 -2448
WIRE 240 -2400 368 -2528
WIRE 240 -2400 192 -2400
WIRE 624 -2400 624 -2432
WIRE -672 -2384 -672 -2448
WIRE -560 -2384 -560 -2448
WIRE -432 -2384 -432 -2448
WIRE 464 -2368 464 -2416
WIRE 96 -2336 -80 -2336
WIRE 192 -2336 192 -2400
WIRE 192 -2336 96 -2336
WIRE 304 -2336 304 -2416
WIRE 192 -2304 192 -2336
WIRE 544 -2304 512 -2304
WIRE 624 -2304 624 -2336
WIRE 624 -2304 544 -2304
WIRE 96 -2288 96 -2336
WIRE 624 -2288 624 -2304
WIRE 544 -2272 544 -2304
WIRE 96 -2176 96 -2224
WIRE 96 -2176 80 -2176
WIRE 192 -2176 192 -2224
WIRE 192 -2176 96 -2176
WIRE 304 -2176 304 -2256
WIRE 304 -2176 192 -2176
WIRE 464 -2176 464 -2272
WIRE 464 -2176 304 -2176
WIRE 544 -2176 544 -2208
WIRE 544 -2176 464 -2176
WIRE 624 -2176 624 -2208
WIRE 624 -2176 544 -2176
WIRE 192 -2160 192 -2176
WIRE -272 -2080 -336 -2080
WIRE -208 -2080 -272 -2080
WIRE -144 -2080 -208 -2080
WIRE -80 -2080 -80 -2336
WIRE -80 -2080 -144 -2080
WIRE 80 -2080 80 -2176
WIRE 144 -2080 80 -2080
WIRE 208 -2080 144 -2080
WIRE 272 -2080 208 -2080
WIRE 336 -2080 272 -2080
WIRE -272 -2016 -336 -2016
WIRE -208 -2016 -272 -2016
WIRE -144 -2016 -208 -2016
WIRE -80 -2016 -144 -2016
WIRE 144 -2016 80 -2016
WIRE 208 -2016 144 -2016
WIRE 272 -2016 208 -2016
WIRE 336 -2016 272 -2016
WIRE -80 -1984 -80 -2016
WIRE 0 -1984 -80 -1984
WIRE 80 -1984 80 -2016
WIRE 80 -1984 0 -1984
WIRE 0 -1968 0 -1984
WIRE 0 -1856 0 -1888
FLAG 192 -2160 0
FLAG -560 -2576 VCC+
IOPIN -560 -2576 BiDir
FLAG -432 -2576 VCC-
IOPIN -432 -2576 BiDir
FLAG 480 -2608 VCC+
IOPIN 480 -2608 BiDir
FLAG 464 -2464 VCC-
IOPIN 464 -2464 BiDir
FLAG -432 -2384 0
FLAG -560 -2384 0
FLAG -672 -2384 0
FLAG 16 -2992 Vstr
IOPIN 16 -2992 BiDir
FLAG 0 -1856 Vstr
IOPIN 0 -1856 BiDir
FLAG -672 -2576 Vstr
IOPIN -672 -2576 BiDir
FLAG 336 -2560 ve
FLAG 624 -2576 va
SYMBOL cap 80 -2288 R0
SYMATTR InstName C1
SYMATTR Value {C}
SYMBOL cap 176 -2688 R0
SYMATTR InstName C2
SYMATTR Value {C}
SYMBOL res 176 -2320 R0
SYMATTR InstName R2
SYMATTR Value {R}
SYMBOL res 288 -2352 R0
SYMATTR InstName R4
SYMATTR Value 1k2
SYMBOL res 432 -2432 R90
WINDOW 0 0 56 VBottom 2
WINDOW 3 32 56 VTop 2
SYMATTR InstName R8
SYMATTR Value 10k
SYMBOL res 640 -2192 R180
WINDOW 0 -33 78 Left 2
WINDOW 3 -42 43 Left 2
SYMATTR InstName R5
SYMATTR Value 20k
SYMBOL res 640 -2416 R180
WINDOW 0 -30 76 Left 2
WINDOW 3 -46 48 Left 2
SYMATTR InstName R7
SYMATTR Value 1K
SYMBOL res 400 -2640 R270
WINDOW 0 32 56 VTop 2
WINDOW 3 8 57 VBottom 2
SYMATTR InstName R3
SYMATTR Value 2k3
SYMBOL res 176 -2544 R0
WINDOW 0 -30 39 Left 2
WINDOW 3 -46 69 Left 2
SYMATTR InstName R1
SYMATTR Value {R}
SYMBOL res 32 -2880 R180
WINDOW 0 36 76 Left 2
WINDOW 3 36 40 Left 2
SYMATTR InstName R9
SYMATTR Value 100k
SYMBOL res -16 -1984 R0
SYMATTR InstName R6
SYMATTR Value 100k
SYMBOL diode 640 -2336 R180
WINDOW 0 -26 60 Left 2
WINDOW 3 -82 6 Left 2
SYMATTR InstName D1
SYMATTR Value 1N4148
SYMBOL cap 528 -2272 R0
SYMATTR InstName C3
SYMATTR Value 1nF
SYMBOL voltage -432 -2544 R0
SYMATTR InstName VCC-
SYMATTR Value -10V
SYMBOL voltage -560 -2544 R0
SYMATTR InstName VCC+
SYMATTR Value 10V
SYMBOL voltage -672 -2544 R0
SYMATTR InstName Vstr
SYMATTR Value {Vstr}
SYMBOL LT1363 448 -2608 R0
SYMATTR InstName U2
SYMBOL varactor -32 -2768 R180
WINDOW 0 24 64 Left 2
WINDOW 3 24 0 Left 2
SYMATTR InstName D4
SYMATTR Value BB911
SYMBOL njf 512 -2368 M0
SYMATTR InstName J1
SYMATTR Value J113
SYMBOL varactor -96 -2768 R180
WINDOW 0 24 64 Left 2
WINDOW 3 24 0 Left 2
SYMATTR InstName D18
SYMATTR Value BB911
SYMBOL varactor -160 -2768 R180
WINDOW 0 24 64 Left 2
WINDOW 3 24 0 Left 2
SYMATTR InstName D19
SYMATTR Value BB911
SYMBOL varactor -224 -2768 R180
WINDOW 0 24 64 Left 2
WINDOW 3 24 0 Left 2
SYMATTR InstName D20
SYMATTR Value BB911
SYMBOL varactor -288 -2768 R180
WINDOW 0 24 64 Left 2
WINDOW 3 24 0 Left 2
SYMATTR InstName D21
SYMATTR Value BB911
SYMBOL varactor 336 -2768 R180
WINDOW 0 24 64 Left 2
WINDOW 3 24 0 Left 2
SYMATTR InstName D2
SYMATTR Value BB911
SYMBOL varactor 272 -2768 R180
WINDOW 0 24 64 Left 2
WINDOW 3 24 0 Left 2
SYMATTR InstName D3
SYMATTR Value BB911
SYMBOL varactor 208 -2768 R180
WINDOW 0 24 64 Left 2
WINDOW 3 24 0 Left 2
SYMATTR InstName D5
SYMATTR Value BB911
SYMBOL varactor 144 -2768 R180
WINDOW 0 24 64 Left 2
WINDOW 3 24 0 Left 2
SYMATTR InstName D6
SYMATTR Value BB911
SYMBOL varactor 80 -2768 R180
WINDOW 0 24 64 Left 2
WINDOW 3 24 0 Left 2
SYMATTR InstName D7
SYMATTR Value BB911
SYMBOL varactor 64 -2080 R0
SYMATTR InstName D8
SYMATTR Value BB911
SYMBOL varactor 128 -2080 R0
SYMATTR InstName D9
SYMATTR Value BB911
SYMBOL varactor 192 -2080 R0
SYMATTR InstName D10
SYMATTR Value BB911
SYMBOL varactor 256 -2080 R0
SYMATTR InstName D11
SYMATTR Value BB911
SYMBOL varactor 320 -2080 R0
SYMATTR InstName D12
SYMATTR Value BB911
SYMBOL varactor -352 -2080 R0
SYMATTR InstName D13
SYMATTR Value BB911
SYMBOL varactor -288 -2080 R0
SYMATTR InstName D14
SYMATTR Value BB911
SYMBOL varactor -224 -2080 R0
SYMATTR InstName D15
SYMATTR Value BB911
SYMBOL varactor -160 -2080 R0
SYMATTR InstName D16
SYMATTR Value BB911
SYMBOL varactor -96 -2080 R0
SYMATTR InstName D17
SYMATTR Value BB911
TEXT 728 -2664 Left 2 !.param R=1k\n.param C=2.7pF\n*.param Vstr=5V\n.step param Vstr 8 11 .25\n.ic V(va)=0.001\n \n.model 1SV305 D(IS=1e-14 RS=0.27 CJO=40p M=0.5 VJ=1)\n.MODEL BB911 D (IS=1e-14 RS=0.0011 CJO=1.049e-10 VJ=0.75 TT=5n M=0.9987 BV=100 N=1 EG=1.11 XTI=3 FC=0.5 IBV=0.0001 TNOM=27)\n.tran 1n 200u
