Version 4
SHEET 1 1984 852
TEXT 104 24 Left 2 !.title KiCad schematic\n.include "C:/Users/torbe/Documents/2.0 Studium/6.0 Semester/M6.10 Analoge Schaltungen (ANS)/ANS-VCO-Projekt-2026/kicad/spicelibs/sloj069/TL081.301"\n.save all\n.probe alli\n.probe p(XU1)\n.probe p(R3)\n.probe p(R4)\n.probe p(V2)\n.probe p(R2)\n.probe p(R5)\n.probe p(C2)\n.probe p(R1)\n.probe p(V1)\n.probe p(C1)\n.model D_Zener D(BV=2.1 IBV=0.005)\n.ic V(Net-_C2-Pad2_)=5\n.tran 1m 10m\nD2 Net-_D1-K_ VA D_Zener\nD1 Net-_D1-K_ Net-_D1-A_ D_Zener\nXU1 /Ve Net-_U1--_ VCC+ VCC- VA TL081\nR3 Net-_U1--_ VA 2k\nR4 Net-_U1--_ 0 1k\nV2 VCC+ 0 DC 10 \nR2 /Ve 0 1k\nR5 Net-_U1--_ Net-_D1-A_ 18.41k\nC2 VA Net-_C2-Pad2_ 100n\nR1 Net-_C2-Pad2_ /Ve 1k\nV1 0 VCC- DC 10 \nC1 /Ve 0 100n\n.end
