Version 4
SHEET 1 880 908
TEXT 56 24 Left 2 !.title KiCad schematic\n.include "C:/Users/torbe/Downloads/snom205a/lm7171.lib"\n.save all\n.probe alli\n.probe p(R3)\n.probe p(XU1)\n.probe p(C1)\n.probe p(R2)\n.probe p(R1)\n.probe p(C2)\n.probe p(R5)\n.probe p(R4)\n.probe p(V1)\n.probe p(V2)\n.param C = 27pF\n.param R = 980R\n.model D_Zener D(BV=2.7 IBV=0.005)\n.ic V(Net-_C2-Pad2_)=0.001\n.tran 1u 10u\nD1 Net-_D1-K_ Net-_D1-A_ D_Zener\nD2 Net-_D1-K_ VA D_Zener\nR3 Net-_U1--_ VA 2.2k\nXU1 /Ve Net-_U1--_ VCC+ VCC- VA LM7171\nC1 /Ve 0 {C}\nR2 /Ve 0 {R}\nR1 Net-_C2-Pad2_ /Ve {R}\nC2 VA Net-_C2-Pad2_ {C}\nR5 Net-_U1--_ Net-_D1-A_ 22k\nR4 Net-_U1--_ 0 1k\nV1 0 VCC- DC 10 \nV2 VCC+ 0 DC 10 \n.end
